/*--------------------------------*- C++ -*----------------------------------*\
| =========                 |                                                 |
| \\      /  F ield         | OpenFOAM: The Open Source CFD Toolbox           |
|  \\    /   O peration     | Version:  v2206                                 |
|   \\  /    A nd           | Website:  www.openfoam.com                      |
|    \\/     M anipulation  |                                                 |
\*---------------------------------------------------------------------------*/
FoamFile
{
    version     2.0;
    format      ascii;
    class       volScalarField;
    object      epsilon;
}
// * * * * * * * * * * * * * * * * * * * * * * * * * * * * * * * * * * * * * //

#include "../parameters"

dimensions      [0 2 -3 0 0 0 0];

internalField   uniform 1e-1;

boundaryField
{
    frontAndBack
  {
    type empty;
      }
    "wall.*"
    {
        type            epsilonWallFunction;
        lowReCorrection true;
        value           $internalField;
    }
    "proc.*"
    {
      type processor;
    }
}


// ************************************************************************* //
